@<TRIPOS>MOLECULE
JZ4
43 45 1 0 0
SMALL
AMBER ff14SB


@<TRIPOS>ATOM
      1 C         -21.9490   16.7040    9.8610 C.3       1 JZ4   -0.0494
      2 C         -21.7240   18.0280    9.1930 C.ar      1 JZ4    0.1016
      3 C         -22.8150   18.9120    9.3610 C.ar      1 JZ4   -0.0731
      4 C         -22.8270   20.1840    8.8100 C.ar      1 JZ4    0.1387
      5 C         -21.7220   20.6110    8.0890 C.ar      1 JZ4   -0.0731
      6 C         -20.6030   19.7680    7.9100 C.ar      1 JZ4    0.1016
      7 C         -20.5820   18.4540    8.4660 C.ar      1 JZ4    0.1311
      8 C         -19.4540   20.3320    7.1110 C.3       1 JZ4   -0.0494
      9 C         -23.9760   21.0200    8.9840 C.1       1 JZ4    0.1164
     10 N         -24.9190   21.6800    9.1340 N.1       1 JZ4   -0.1910
     11 O         -19.4780   17.6960    8.0780 O.3       1 JZ4   -0.2864
     12 C         -19.5370   16.3170    7.9000 C.ar      1 JZ4    0.1933
     13 N         -20.6490   15.8030    7.3640 N.ar      1 JZ4   -0.1887
     14 C         -20.7690   14.4830    7.2740 C.ar      1 JZ4    0.2232
     15 N         -19.7650   13.6470    7.5300 N.ar      1 JZ4   -0.1987
     16 C         -18.5990   14.1700    7.9150 C.ar      1 JZ4    0.1373
     17 C         -18.4250   15.5300    8.1380 C.ar      1 JZ4    0.1077
     18 Br        -16.7650   16.2320    8.7020 Br        1 JZ4   -0.0423
     19 N         -22.0270   13.9830    6.9520 N.pl3     1 JZ4   -0.2693
     20 H         -22.3000   14.2290    6.0120 H         1 JZ4    0.1572
     21 C         -23.0790   13.7180    7.8440 C.ar      1 JZ4    0.1361
     22 C         -22.9380   13.8750    9.2300 C.ar      1 JZ4   -0.0350
     23 C         -23.9180   13.4150   10.1120 C.ar      1 JZ4   -0.0389
     24 C         -25.0610   12.7970    9.6090 C.ar      1 JZ4    0.1524
     25 C         -25.2460   12.6910    8.2300 C.ar      1 JZ4   -0.0389
     26 C         -26.0180   12.2360   10.5160 C.1       1 JZ4    0.1177
     27 C         -24.2650   13.1630    7.3510 C.ar      1 JZ4   -0.0350
     28 N         -26.7900   11.7730   11.2490 N.1       1 JZ4   -0.1910
     29 N         -17.6170   13.2060    8.1330 N.pl3     1 JZ4   -0.3421
     30 H         -17.6530   12.9680    9.1240 H         1 JZ4    0.1442
     31 H         -17.7370   12.3890    7.5450 H         1 JZ4    0.1442
     32 H         -23.6675   18.5851    9.9379 H         1 JZ4    0.0000
     33 H         -21.7170   21.6015    7.6586 H         1 JZ4    0.0000
     34 H         -22.0564   14.3600    9.6222 H         1 JZ4    0.0000
     35 H         -23.7908   13.5375   11.1775 H         1 JZ4    0.0000
     36 H         -26.1484   12.2436    7.8403 H         1 JZ4    0.0000
     37 H         -24.4243   13.0985    6.2848 H         1 JZ4    0.0000
     38 H         -18.6581   19.5902    7.0449 H         1 JZ4    0.0000
     39 H         -19.0752   21.2281    7.6026 H         1 JZ4    0.0000
     40 H         -19.7985   20.5856    6.1085 H         1 JZ4    0.0000
     41 H         -21.6687   16.7744   10.9120 H         1 JZ4    0.0000
     42 H         -21.3400   15.9430    9.3731 H         1 JZ4    0.0000
     43 H         -23.0016   16.4320    9.7831 H         1 JZ4    0.0000
@<TRIPOS>BOND
     1     1     2    1
     2     1    41    1
     3     1    42    1
     4     1    43    1
     5     2     3   ar
     6     2     7   ar
     7     3     4   ar
     8     3    32    1
     9     4     5   ar
    10     4     9    1
    11     5     6   ar
    12     5    33    1
    13     6     7   ar
    14     6     8    1
    15     7    11    1
    16     8    38    1
    17     8    39    1
    18     8    40    1
    19     9    10    3
    20    11    12    1
    21    12    13   ar
    22    12    17   ar
    23    13    14   ar
    24    14    15   ar
    25    14    19    1
    26    15    16   ar
    27    16    17   ar
    28    16    29    1
    29    17    18    1
    30    19    20    1
    31    19    21    1
    32    21    22   ar
    33    21    27   ar
    34    22    23   ar
    35    22    34    1
    36    23    24   ar
    37    23    35    1
    38    24    25   ar
    39    24    26    1
    40    25    27   ar
    41    25    36    1
    42    26    28    3
    43    27    37    1
    44    29    30    1
    45    29    31    1
